#!/bin/sh

MODPKG_NAME=modules.tgz
STORAGE_MEDIA=${1:-$STORAGE_MEDIA}
if [ -z "$STORAGE_MEDIA" ]; then
	echo "STORAGE_MEDIA nor directory with modules.tgz not specified!"
	echo "Usage: $0 [directory with $MODPKG_NAME]"
	exit 1
fi

MODPKG=""
for i in $STORAGE_MEDIA; do
	[ -r $i/$MODPKG_NAME ] && MODPKG=$i/$MODPKG_NAME
done

KVER=`uname -r`
MODDIR="/lib/modules/$KVER"
DELAY=1

if [ -z "$MODPKG" ]; then
	echo "$MODPKG_NAME not found! Put it near moddb.lrp!"
	exit 1
fi

trap "echo \" Terminated, doing clean-up.\"; rm -rf $MODDIR; \
	ln -s /lib/modules $MODDIR; depmod; exit" 2 5 15

echo -n "Extracting modules from $MODPKG_NAME... "
cd /lib/modules
rm -rf $MODDIR
mkdir $KVER; cd $KVER
tar -xzf $MODPKG
depmod
echo -e -n "Done.\nProbing modaliases... "

MODALIAS=`find /sys/devices -iname modalias -exec cat {} \;`
TMODALIAS=""
while [ `echo "$MODALIAS"|wc -l` -gt `echo "$TMODALIAS"|wc -l` ]; do
	MODCOUNT=0
	for i in $MODALIAS; do
		if [ -z "`modprobe $i 2>&1 | grep \"not found\"`" ]; then
			MODCOUNT=$(($MODCOUNT+1))
		fi
	done
	sleep $DELAY
	TMODALIAS="$MODALIAS"
	MODALIAS=`find /sys/devices -iname modalias -exec cat {} \;`
done
echo -e "Done.\n$MODCOUNT devices have modules."

echo "Checking entries in /etc/modules..."
MODLIST="`grep -v ^# /etc/modules | sed 's/ .*//g;s/_/?/g'`"
MODCOUNT=0
for i in $MODLIST; do
	MODPATH=`find -name $i.ko`
	if [ ! -z "$MODPATH" ]; then
		if [ -z "`modprobe $i 2>&1 | grep \"not found\"`" ]; then
			MODCOUNT=$(($MODCOUNT+1))
		fi
	fi
done
echo "Done.\n$MODCOUNT modules was probed."

echo "Copying new modules to /lib/modules..."
MODLIST="`lsmod | sed 's/ .*//g;s/_/?/g'`"
for i in $MODLIST; do
	MODPATH=`find -name $i.ko`
	if [ ! -z "$MODPATH" ]; then
		MODFILE=`basename $MODPATH`
		if [ ! -f /lib/modules/$MODFILE ]; then
			echo "Adding $MODFILE"
			cp -a $MODPATH /lib/modules
		fi
	fi
done
echo Done.

rm -rf $MODDIR; ln -s /lib/modules $MODDIR
depmod
